src/test/resources/ieeefiles/ahxx201312041630.txt
 27/07/13 ZJU RDS              100.0  2013 8         Anhuisheng Test Case
BUS DATA FOLLOWS                    10045 ITEMS
   1 皖洛河_62 1   1  2 .98000  .0000   23.760  11.1700  425.100  .00000  20.000 .98000 300.000 40.0000  .00000  .00000 0   
   2 皖洛河_52 1   1  2 .98000  .0000   24.220  11.3800  426.300  .00000  20.000 .98000 160.000 40.0000  .00000  .00000 0   
   3 皖平圩_32 1   1  2 .98000  .0000   19.200  9.02500  398.200  .00000  20.000 .98000 315.000 .000000  .00000  .00000 0   
   4 皖平圩_42 1   1  2 .98000  .0000   19.980  9.38900  400.200  .00000  20.000 .98000 315.000 .000000  .00000  .00000 0   
   5 华龙子_12 1   1  2 .98000  .0000   31.320  14.7200  627.300  .00000  20.000 .98000 300.000 50.0000  .00000  .00000 0   
   6 华龙子_22 1   1  2 .98000  .0000   29.650  13.9400  619.700  .00000  20.000 .98000 300.000 50.0000  .00000  .00000 0   
   7 华袁庄_12 1   1  2 .98000  .0000   17.090  8.03300  418.400  .00000  20.000 .98000 160.000 .000000  .00000  .00000 0   
   8 华袁庄_22 1   1  2 .98000  .0000   17.470  8.21100  420.600  .00000  20.000 .98000 160.000 .000000  .00000  .00000 0   
   9 华宿州_12 1   1  2 .98000  .0000   18.100  8.50900  469.900  .00000  20.000 .98000 315.000 50.0000  .00000  .00000 0   
   a 华宿州_22 1   1  2 .98000  .0000   21.720  10.2100  471.500  .00000  20.000 .98000 315.000 50.0000  .00000  .00000 0   
   b 华凤台_12 1   1  2 .98000  .0000   21.490  10.1000  491.200  .00000  20.000 .98000 160.000 50.0000  .00000  .00000 0   
   c 华凤台_22 1   1  2 .98000  .0000   22.740  10.6900  492.500  .00000  20.000 .98000 160.000 50.0000  .00000  .00000 0   
   d 皖淮二_12 1   1  2 .98000  .0000   10.900  5.12400  300.200  .00000  20.000 .98000 160.000 .000000  .00000  .00000 0   
   e 皖临涣_22 1   1  2 .98000  .0000   22.070  10.3800  258.200  .00000  20.000 .98000 160.000 .000000  .00000  .00000 0   
   f 皖临涣_12 1   1  2 .98000  .0000   19.830  9.32000  274.800  .00000  20.000 .98000 160.000 .000000  .00000  .00000 0   
  10 皖临涣_32 1   1  2 .98000  .0000   16.170  7.59900  256.400  .00000  20.000 .98000 160.000 .000000  .00000  .00000 0   
  11 皖淮北_81 1   1  2 .98000  .0000   13.550  6.36600  151.600  .00000  15.700 .98000 110.000 10.0000  .00000  .00000 0   
  12 皖虎山_22 1   1  2 .98000  .0000   21.900  10.2900  500.300  .00000  20.000 .98000 250.000 .000000  .00000  .00000 0   
  13 皖汇源_52 1   1  2 .98000  .0000   8.3700  3.93400  169.200  .00000  20.000 .98000 75.0000 .000000  .00000  .00000 0   
  14 皖汇源_62 1   1  2 .98000  .0000   16.440  7.72500  319.600  .00000  20.000 .98000 75.0000 .000000  .00000  .00000 0   
  15 皖汇源_41 1   1  2 .98000  .0000   11.840  5.56600  94.3100  .00000  13.800 .98000 75.0000 .000000  .00000  .00000 0   
  16 皖阜润_22 1   1  2 .98000  .0000   23.740  11.1600  552.000  .00000  22.000 .98000 300.000 .000000  .00000  .00000 0   
  17 皖阜润_12 1   1  2 .98000  .0000   22.680  10.6600  404.500  .00000  22.000 .98000 300.000 50.0000  .00000  .00000 0   
  18 皖曹店G03 1   1  2 .98000  .0000   .00000  .000000  .000000  .00000  37.000 .98000 22.5000 .000000  .00000  .00000 0   
  19 皖曹店G13 1   1  2 .98000  .0000   .00000  .000000  .000000  .00000  37.000 .98000 27.0000 .000000  .00000  .00000 0   
  1a 皖曹店G23 1   1  2 .98000  .0000   .00000  .000000  .000000  .00000  37.000 .98000 24.0000 .000000  .00000  .00000 0   
  1b 皖曹店G33 1   1  2 .98000  .0000   .00000  .000000  .000000  .00000  37.000 .98000 25.5000 .000000  .00000  .00000 0   
  1c 皖万寿G03 1   1  2 .98000  .0000   .00000  .000000  .000000  .00000  37.000 .98000 15.0000 .000000  .00000  .00000 0   
  1d 皖万寿G13 1   1  2 .98000  .0000   .00000  .000000  .000000  .00000  37.000 .98000 15.0000 .000000  .00000  .00000 0   
  1e 皖来安G13 1   1  2 .98000  .0000   .00000  .000000  .000000  .00000  37.000 .98000 13.5000 .000000  .00000  .00000 0   
  1f 皖来安G23 1   1  2 .98000  .0000   .00000  .000000  .000000  .00000  37.000 .98000 15.0000 .000000  .00000  .00000 0   
  20 皖来安G33 1   1  2 .98000  .0000   .00000  .000000  .000000  .00000  37.000 .98000 15.0000 .000000  .00000  .00000 0   
  21 皖来安G43 1   1  2 .98000  .0000   .00000  .000000  .000000  .00000  37.000 .98000 15.0000 .000000  .00000  .00000 0   
  22 皖来安G53 1   1  2 .98000  .0000   .00000  .000000  .000000  .00000  37.000 .98000 15.0000 .000000  .00000  .00000 0   
  23 皖来安G63 1   1  2 .98000  .0000   .00000  .000000  .000000  .00000  37.000 .98000 15.0000 .000000  .00000  .00000 0   
  24 皖来安G73 1   1  2 .98000  .0000   .00000  .000000  .000000  .00000  37.000 .98000 15.0000 .000000  .00000  .00000 0   
  25 皖来安G83 1   1  2 .98000  .0000   .00000  .000000  .000000  .00000  37.000 .98000 15.0000 .000000  .00000  .00000 0   
  26 皖来安G93 1   1  2 .98000  .0000   .00000  .000000  .000000  .00000  37.000 .98000 15.0000 .000000  .00000  .00000 0   
  27 皖来安GA3 1   1  2 .98000  .0000   .00000  .000000  .000000  .00000  37.000 .98000 15.0000 .000000  .00000  .00000 0   
  28 皖来安GB3 1   1  2 .98000  .0000   .00000  .000000  .000000  .00000  37.000 .98000 15.0000 .000000  .00000  .00000 0   
  29 皖来安GC3 1   1  2 .98000  .0000   .00000  .000000  .000000  .00000  37.000 .98000 15.0000 .000000  .00000  .00000 0   
  2a 皖来安GD3 1   1  2 .98000  .0000   .00000  .000000  .000000  .00000  37.000 .98000 15.0000 .000000  .00000  .00000 0   
  2b 皖来安GE3 1   1  2 .98000  .0000   .00000  .000000  .000000  .00000  37.000 .98000 15.0000 .000000  .00000  .00000 0   
  2c 皖来安GF3 1   1  2 .98000  .0000   .00000  .000000  .000000  .00000  37.000 .98000 15.0000 .000000  .00000  .00000 0   
  2d 皖钱甸_11 1   1  2 .98000  .0000   8.0560  3.78600  100.000  .00000  13.800 .98000 55.0000 .000000  .00000  .00000 0   
  2e 皖滨淮_21 1   1  2 .98000  .0000   6.6020  3.10300  90.2100  .00000  13.800 .98000 60.0000 .000000  .00000  .00000 0   
  2f 皖洛河_21 1   1  2 .98000  .0000   15.780  7.41600  253.000  .00000  18.000 .98000 160.000 40.0000  .00000  .00000 0   
  30 皖炉桥_22 1   1  2 .98000  .0000   12.260  5.76100  284.400  .00000  20.000 .98000 160.000 .000000  .00000  .00000 0   
  31 皖平圩_12 1   1  2 .98000  .0000   9.1980  4.32300  459.900  .00000  20.000 .98000 300.000 40.0000  .00000  .00000 0   
  32 皖平圩_22 1   1  2 .98000  .0000   20.220  9.50300  404.400  .00000  20.000 .98000 315.000 40.0000  .00000  .00000 0   
  33 皖顾桥#22 1   1  2 .98000  .0000   17.170  8.07100  280.400  .00000  20.000 .98000 160.000 .000000  .00000  .00000 0   
  34 皖顾桥#12 1   1  2 .98000  .0000   15.710  7.38400  280.000  .00000  20.000 .98000 160.000 .000000  .00000  .00000 0   
  35 皖田厂_52 1   1  2 .98000  .0000   17.880  8.40500  300.700  .00000  20.000 .98000 160.000 20.0000  .00000  .00000 0   
  36 皖田厂_62 1   1  2 .98000  .0000   16.050  7.54200  200.100  .00000  20.000 .98000 160.000 20.0000  .00000  .00000 0   
  37 皖居巢_12 1   1  2 .98000  .0000   22.440  10.5500  456.900  .00000  20.000 .98000 160.000 .000000  .00000  .00000 0   
  38 皖居巢_22 1   1  2 .98000  .0000   18.260  8.58300  467.500  .00000  20.000 .98000 160.000 .000000  .00000  .00000 0   
  39 皖合厂_62 1   1  2 .98000  .0000   19.570  9.19600  430.400  .00000  20.000 .98000 75.0000 .000000  .00000  .00000 0   
  3a 皖合厂_52 1   1  2 .98000  .0000   21.520  10.1100  439.500  .00000  22.000 .98000 75.0000 .000000  .00000  .00000 0   
  3b 皖合二_12 1   1  2 .98000  .0000   15.530  7.30000  282.500  .00000  20.000 .98000 175.000 .000000  .00000  .00000 0   
  3c 皖合二_22 1   1  2 .98000  .0000   19.220  9.03400  291.200  .00000  20.000 .98000 175.000 .000000  .00000  .00000 0   
  3d 皖华六_11 1   1  2 .98000  .0000   8.2700  3.88700  105.200  .00000  13.800 .98000 62.5000 .000000  .00000  .00000 0   
  3e 皖响蓄_51 1   1  2 .98000  .0000   -.0010  -.00000  .000000  .00000  10.500 .98000 25.0000 12.0000  .00000  .00000 0   
  3f 皖响蓄_61 1   1  2 .98000  .0000   -.0010  -.00000  .000000  .00000  10.500 .98000 25.0000 12.0000  .00000  .00000 0   
  40 皖安厂_12 1   1  2 .98000  .0000   9.9270  4.66600  308.600  .00000  20.000 .98000 160.000 .000000  .00000  .00000 0   
  41 皖安厂_22 1   1  2 .98000  .0000   11.720  5.50800  308.200  .00000  20.000 .98000 160.000 .000000  .00000  .00000 0   
  42 皖马一_22 1   1  2 .98000  .0000   25.750  12.1000  409.500  .00000  20.000 .98000 70.0000 50.0000  .00000  .00000 0   
  43 皖新桥_22 1   1  2 .98000  .0000   21.740  10.2200  578.800  .00000  20.000 .98000 300.000 -200.00  .00000  .00000 0   
  44 皖新桥_12 1   1  2 .98000  .0000   .00000  .000000  582.500  .00000  20.000 .98000 300.000 -200.00  .00000  .00000 0   
  45 皖马二_22 1   1  2 .98000  .0000   23.790  11.1800  253.600  .00000  20.000 .98000 160.000 20.0000  .00000  .00000 0   
  46 皖马二_12 1   1  2 .98000  .0000   22.950  10.7900  254.700  .00000  20.000 .98000 160.000 20.0000  .00000  .00000 0   
  47 皖马二_42 1   1  2 .98000  .0000   20.890  9.81800  307.100  .00000  20.000 .98000 180.000 -70.000  .00000  .00000 0   
  48 皖塘岔_D1 1   1  2 .98000  .0000   4.0000  1.88000  36.0000  .00000  10.500 .98000 60.0000 10.0000  .00000  .00000 0   
  49 皖塘岔111 1   1  2 .98000  .0000   7.0000  3.29000  123.000  .00000  10.500 .98000 60.0000 .000000  .00000  .00000 0   
  4a 皖塘岔121 1   1  2 .98000  .0000   11.000  5.17000  134.000  .00000  10.500 .98000 60.0000 .000000  .00000  .00000 0   
  4b 皖天门_12 1   1  2 .98000  .0000   20.100  9.44800  350.100  .00000  22.000 .98000 250.000 .000000  .00000  .00000 0   
  4c 皖天门_22 1   1  2 .98000  .0000   35.180  16.5300  658.900  .00000  22.000 .98000 250.000 .000000  .00000  .00000 0   
  4d 皖团洲_12 1   1  2 .98000  .0000   26.180  12.3000  559.200  .00000  22.000 .98000 315.000 50.0000  .00000  .00000 0   
  4e 皖团洲_22 1   1  2 .98000  .0000   25.630  12.0400  568.300  .00000  22.000 .98000 315.000 50.0000  .00000  .00000 0   
  4f 皖永丰_12 1   1  2 .98000  .0000   27.870  13.1000  577.700  .00000  20.000 .98000 300.000 50.0000  .00000  .00000 0   
  50 皖永丰_22 1   1  2 .98000  .0000   29.640  13.9300  615.500  .00000  20.000 .98000 300.000 50.0000  .00000  .00000 0   
  51 皖铜陵_32 1   1  2 .98000  .0000   21.260  9.99300  315.800  .00000  20.000 .98000 160.000 20.0000  .00000  .00000 0   
  52 皖铜陵_52 1   1  2 .98000  .0000   36.340  17.0800  983.200  .00000  27.000 .98000 500.000 -200.00  .00000  .00000 0   
  53 皖宣城_12 1   1  2 .98000  .0000   44.160  20.7500  477.400  .00000  20.000 .98000 160.000 50.0000  .00000  .00000 0   
  54 皖陈村_31 1   1  2 .98000  .0000   2.1600  1.01500  43.2000  .00000  10.500 .98000 25.0000 .000000  .00000  .00000 0   
  55 皖陈村_11 1   1  2 .98000  .0000   1.9540  .918200  39.0700  .00000  15.700 .98000 25.0000 .000000  .00000  .00000 0   
  56 皖九华_22 1   1  2 .98000  .0000   17.860  8.39400  319.600  .00000  20.000 .98000 150.000 20.0000  .00000  .00000 0   
  57 皖桃沟_12 1   1  0 1.0000  .0000   16.080  -2.8100  .000000  .00000  230.00 1.0000 .000000 .000000  .00000  .00000 0   
  58 皖徐寨Ⅱ 1   1  0 1.0000  .0000   39.350  17.8600  .000000  .00000  230.00 1.0000 .000000 .000000  .00000  .00000 0   
  59 皖李楼Ⅱ 1   1  0 1.0000  .0000   5.2910  .000000  .000000  .00000  230.00 1.0000 .000000 .000000  .00000  .00000 0   
  5a 皖固镇Ⅰ 1   1  0 1.0000  .0000   12.210  -3.0300  .000000  .00000  230.00 1.0000 .000000 .000000  .00000  .00000 0   
  5b 皖华兴Ⅰ 1   1  0 1.0000  .0000   -3.000  .000000  .000000  .00000  230.00 1.0000 .000000 .000000  .00000  .00000 0   
  5c 皖华兴Ⅱ 1   1  0 1.0000  .0000   15.930  .000000  .000000  .00000  230.00 1.0000 .000000 .000000  .00000  .00000 0   
  5d 皖桑涧002 1   1  0 1.0000  .0000   21.220  .000000  .000000  .00000  230.00 1.0000 .000000 .000000  .00000  .00000 0   
  5e 皖腰铺Ⅰ 1   1  0 1.0000  .0000   18.310  -1.7900  .000000  .00000  230.00 1.0000 .000000 .000000  .00000  .00000 0   
  5f 皖炉桥Ⅱ 1   1  0 1.0000  .0000   107.80  105.000  .000000  .00000  230.00 1.0000 .000000 .000000  .00000  .00000 0   
  60 皖炉桥Ⅰ 1   1  0 1.0000  .0000   133.00  109.300  .000000  .00000  230.00 1.0000 .000000 .000000  .00000  .00000 0   
  61 皖鑫晟Ⅰ 1   1  0 1.0000  .0000   23.050  4.42200  .000000  .00000  230.00 1.0000 .000000 .000000  .00000  .00000 0   
  62 皖鑫晟Ⅱ 1   1  0 1.0000  .0000   18.090  1.87600  .000000  .00000  230.00 1.0000 .000000 .000000  .00000  .00000 0   
  63 皖龙城Ⅰ 1   1  0 1.0000  .0000   14.740  .000000  .000000  .00000  230.00 1.0000 .000000 .000000  .00000  .00000 0   
  64 皖长安Ⅰ 1   1  0 1.0000  .0000   1.8130  .000000  .000000  .00000  230.00 1.0000 .000000 .000000  .00000  .00000 0   
  65 皖马店002 1   1  0 1.0000  .0000   2.1450  .000000  .000000  .00000  230.00 1.0000 .000000 .000000  .00000  .00000 0   
  66 皖裕安002 1   1  0 1.0000  .0000   9.9170  .000000  .000000  .00000  230.00 1.0000 .000000 .000000  .00000  .00000 0   
  67 皖安热Ⅱ 1   1  0 1.0000  .0000   16.190  -4.4700  .000000  .00000  230.00 1.0000 .000000 .000000  .00000  .00000 0   
  68 皖泉河1A2 1   1  0 1.0000  .0000   4.4730  -11.500  .000000  .00000  230.00 1.0000 .000000 .000000  .00000  .00000 0   
  69 皖围屏Ⅱ 1   1  0 1.0000  .0000   36.390  4.01900  .000000  .00000  230.00 1.0000 .000000 .000000  .00000  .00000 0   
  6a 皖钢轧Ⅰ 1   1  0 1.0000  .0000   188.90  43.7500  .000000  .00000  230.00 1.0000 .000000 .000000  .00000  .00000 0   
  6b 皖钢轧Ⅱ 1   1  0 1.0000  .0000   47.660  25.7600  .000000  .00000  230.00 1.0000 .000000 .000000  .00000  .00000 0   
  6c 皖热轧H12 1   1  0 1.0000  .0000   5.4940  .000000  .000000  .00000  230.00 1.0000 .000000 .000000  .00000  .00000 0   
  6d 皖塘岔Ⅱ 1   1  0 1.0000  .0000   70.000  29.0000  .000000  .00000  115.00 1.0000 .000000 .000000  .00000  .00000 0   
  6e 皖塘岔Ⅰ 1   1  0 1.0000  .0000   87.000  20.0000  .000000  .00000  115.00 1.0000 .000000 .000000  .00000  .00000 0   
  6f 皖响水Ⅱ 1   1  0 1.0000  .0000   1.8760  .000000  .000000  .00000  525.00 1.0000 .000000 .000000  .00000  .00000 0   
  70 皖响水Ⅰ 1   1  0 1.0000  .0000   4.0000  -1.8800  .000000  .00000  525.00 1.0000 .000000 .000000  .00000  .00000 0   
  71 皖月桥Ⅰ 1   1  0 1.0000  .0000   75.870  30.5700  .000000  .00000  230.00 1.0000 .000000 .000000  .00000  .00000 0   
  72 皖周冲Ⅱ 1   1  0 1.0000  .0000   63.000  14.0000  .000000  .00000  230.00 1.0000 .000000 .000000  .00000  .00000 0   
  73 皖周冲Ⅰ 1   1  0 1.0000  .0000   55.000  5.00000  .000000  .00000  230.00 1.0000 .000000 .000000  .00000  .00000 0   
  74 皖朱村Ⅱ 1   1  0 1.0000  .0000   40.870  8.17400  .000000  .00000  230.00 1.0000 .000000 .000000  .00000  .00000 0   
  75 皖朱村Ⅰ 1   1  0 1.0000  .0000   80.240  7.70300  .000000  .00000  230.00 1.0000 .000000 .000000  .00000  .00000 0   
  76 皖新江Ⅱ 1   1  0 1.0000  .0000   79.960  5.71100  .000000  .00000  230.00 1.0000 .000000 .000000  .00000  .00000 0   
  77 皖新江Ⅰ 1   1  0 1.0000  .0000   61.710  17.1300  .000000  .00000  230.00 1.0000 .000000 .000000  .00000  .00000 0   
  78 皖古圣Ⅱ 1   1  0 1.0000  .0000   39.720  .067000  .000000  .00000  230.00 1.0000 .000000 .000000  .00000  .00000 0   
  79 皖古圣Ⅰ 1   1  0 1.0000  .0000   82.460  9.37800  .000000  .00000  230.00 1.0000 .000000 .000000  .00000  .00000 0   
  7a 皖董店Ⅰ 1   1  0 1.0000  .0000   81.000  20.0000  .000000  .00000  230.00 1.0000 .000000 .000000  .00000  .00000 0   
  7b 皖顺安Ⅰ 1   1  0 1.0000  .0000   44.620  4.83800  .000000  .00000  230.00 1.0000 .000000 .000000  .00000  .00000 0   
  7c 皖滨江Ⅱ 1   1  0 1.0000  .0000   80.870  11.9600  .000000  .00000  230.00 1.0000 .000000 .000000  .00000  .00000 0   
  7d 皖滨江Ⅰ 1   1  0 1.0000  .0000   66.850  -3.6100  .000000  .00000  230.00 1.0000 .000000 .000000  .00000  .00000 0   
  7e 皖陈村Ⅱ 1   1  0 1.0000  .0000   27.240  8.71000  .000000  .00000  115.00 1.0000 .000000 .000000  .00000  .00000 0   
  7f 皖陈村Ⅰ 1   1  0 1.0000  .0000   -6.180  -5.7000  .000000  .00000  115.00 1.0000 .000000 .000000  .00000  .00000 0   
  80 皖宁国Ⅱ 1   1  0 1.0000  .0000   62.040  10.7200  .000000  .00000  230.00 1.0000 .000000 .000000  .00000  .00000 0   
  81 皖山门Ⅱ 1   1  0 1.0000  .0000   19.880  -1.9500  .000000  .00000  230.00 1.0000 .000000 .000000  .00000  .00000 0   
  82 皖菊江Ⅱ 1   1  0 1.0000  .0000   110.10  7.25600  .000000  .00000  230.00 1.0000 .000000 .000000  .00000  .00000 0   
  83 皖观牛Ⅱ 1   1  0 1.0000  .0000   38.590  -8.8400  .000000  .00000  230.00 1.0000 .000000 .000000  .00000  .00000 0   
  84 皖双龙Ⅱ 1   1  0 1.0000  .0000   42.150  3.57200  .000000  .00000  230.00 1.0000 .000000 .000000  .00000  .00000 0   
  85 皖灯塔Ⅰ 1   1  0 1.0000  .0000   134.70  30.4900  .000000  .00000  230.00 1.0000 .000000 .000000  .00000  .00000 0   
  86 皖枫岭Ⅱ 1   1  0 1.0000  .0000   42.620  -14.300  .000000  .00000  230.00 1.0000 .000000 .000000  .00000  .00000 0   
  87 皖蓉城Ⅱ 1   1  0 1.0000  .0000   75.100  6.73400  .000000  .00000  230.00 1.0000 .000000 .000000  .00000  .00000 0   
  88 皖池州Ⅱ 1   1  0 1.0000  .0000   25.920  -4.3500  .000000  .00000  230.00 1.0000 .000000 .000000  .00000  .00000 0   
  89 皖池州Ⅰ 1   1  0 1.0000  .0000   64.560  -8.1700  .000000  .00000  230.00 1.0000 .000000 .000000  .00000  .00000 0   
  8a 皖淮二Ⅰ 1   1  0 1.0000  .0000   .00000  .000000  .000000  .00000  230.00 1.0000 .000000 .000000  .00000  .00000 0   
  8b 皖淮二Ⅱ 1   1  0 1.0000  .0000   .00000  .000000  .000000  .00000  230.00 1.0000 .000000 .000000  .00000  .00000 0   
  8c 皖纵楼B22 1   1  0 1.0000  .0000   .00000  .000000  .000000  .00000  230.00 1.0000 .000000 .000000  .00000  .00000 0   
  8d 皖纵楼B12 1   1  0 1.0000  .0000   .00000  .000000  .000000  .00000  230.00 1.0000 .000000 .000000  .00000  .00000 0   
  8e 皖纵楼Ⅰ 1   1  0 1.0000  .0000   .00000  .000000  .000000  .00000  230.00 1.0000 .000000 .000000  .00000  .00000 0   
  8f 皖纵楼Ⅱ 1   1  0 1.0000  .0000   .00000  .000000  .000000  .00000  230.00 1.0000 .000000 .000000  .00000  .00000 0   
  90 皖五里B22 1   1  0 1.0000  .0000   .00000  .000000  .000000  .00000  230.00 1.0000 .000000 .000000  .00000  .00000 0   
  91 皖五里B12 1   1  0 1.0000  .0000   .00000  .000000  .000000  .00000  230.00 1.0000 .000000 .000000  .00000  .00000 0   
  92 皖五里Ⅰ 1   1  0 1.0000  .0000   .00000  .000000  .000000  .00000  230.00 1.0000 .000000 .000000  .00000  .00000 0   
  93 皖五里Ⅱ 1   1  0 1.0000  .0000   .00000  .000000  .000000  .00000  230.00 1.0000 .000000 .000000  .00000  .00000 0   
  94 皖南坪B12 1   1  0 1.0000  .0000   .00000  .000000  .000000  .00000  230.00 1.0000 .000000 .000000  .00000  .00000 0   
  95 皖南坪B22 1   1  0 1.0000  .0000   .00000  .000000  .000000  .00000  230.00 1.0000 .000000 .000000  .00000  .00000 0   
  96 皖南坪Ⅱ 1   1  0 1.0000  .0000   .00000  .000000  .000000  .00000  230.00 1.0000 .000000 .000000  .00000  .00000 0   
  97 皖南坪Ⅰ 1   1  0 1.0000  .0000   .00000  .000000  .000000  .00000  230.00 1.0000 .000000 .000000  .00000  .00000 0   
  98 皖杨柳B12 1   1  0 1.0000  .0000   .00000  .000000  .000000  .00000  230.00 1.0000 .000000 .000000  .00000  .00000 0   
  99 皖杨柳B22 1   1  0 1.0000  .0000   .00000  .000000  .000000  .00000  230.00 1.0000 .000000 .000000  .00000  .00000 0   
  9a 皖杨柳Ⅰ 1   1  0 1.0000  .0000   .00000  .000000  .000000  .00000  230.00 1.0000 .000000 .000000  .00000  .00000 0   
  9b 皖杨柳Ⅱ 1   1  0 1.0000  .0000   .00000  .000000  .000000  .00000  230.00 1.0000 .000000 .000000  .00000  .00000 0   
  9c 皖临涣Ⅱ 1   1  0 1.0000  .0000   .00000  .000000  .000000  .00000  230.00 1.0000 .000000 .000000  .00000  .00000 0   
  9d 皖临涣Ⅰ 1   1  0 1.0000  .0000   .00000  .000000  .000000  .00000  230.00 1.0000 .000000 .000000  .00000  .00000 0   
  9e 皖显通B12 1   1  0 1.0000  .0000   .00000  .000000  .000000  .00000  230.00 1.0000 .000000 .000000  .00000  .00000 0   
  9f 皖显通B22 1   1  0 1.0000  .0000   .00000  .000000  .000000  .00000  230.00 1.0000 .000000 .000000  .00000  .00000 0   
  a0 皖显通Ⅱ 1   1  0 1.0000  .0000   .00000  .000000  .000000  .00000  230.00 1.0000 .000000 .000000  .00000  .00000 0   
  a1 皖显通Ⅰ 1   1  0 1.0000  .0000   .00000  .000000  .000000  .00000  230.00 1.0000 .000000 .000000  .00000  .00000 0   
  a2 皖淮北Ⅰ 1   1  0 1.0000  .0000   .00000  .000000  .000000  .00000  230.00 1.0000 .000000 .000000  .00000  .00000 0   
  a3 皖淮北PC2 1   1  0 1.0000  .0000   .00000  .000000  .000000  .00000  230.00 1.0000 .000000 .000000  .00000  .00000 0   
  a4 皖淮北Ⅱ 1   1  0 1.0000  .0000   .00000  .000000  .000000  .00000  230.00 1.0000 .000000 .000000  .00000  .00000 0   
  a5 皖濉溪B12 1   1  0 1.0000  .0000   .00000  .000000  .000000  .00000  230.00 1.0000 .000000 .000000  .00000  .00000 0   
  a6 皖濉溪_13 1   1  0 1.0000  .0000   .00000  .000000  .000000  .00000  36.000 1.0000 .000000 .000000  .00000  -2.400 0   
  a7 皖濉溪1A2 1   1  0 1.0000  .0000   .00000  .000000  .000000  .00000  230.00 1.0000 .000000 .000000  .00000  .00000 0   
  a8 皖濉溪2B2 1   1  0 1.0000  .0000   .00000  .000000  .000000  .00000  230.00 1.0000 .000000 .000000  .00000  .00000 0   
  a9 皖濉溪1B2 1   1  0 1.0000  .0000   .00000  .000000  .000000  .00000  230.00 1.0000 .000000 .000000  .00000  .00000 0   
  aa 皖濉溪Ⅰ 1   1  0 1.0000  .0000   .00000  .000000  .000000  .00000  525.00 1.0000 .000000 .000000  .00000  .00000 0   
  ab 皖濉溪Ⅱ 1   1  0 1.0000  .0000   .00000  .000000  .000000  .00000  525.00 1.0000 .000000 .000000  .00000  .00000 0   
  ac 皖濉溪135 1   1  0 1.0000  .0000   .00000  .000000  .000000  .00000  525.00 1.0000 .000000 .000000  .00000  .00000 0   
  ad 皖濉溪535 1   1  0 1.0000  .0000   .00000  .000000  .000000  .00000  525.00 1.0000 .000000 .000000  .00000  .00000 0   
  ae 皖濉溪525 1   1  0 1.0000  .0000   .00000  .000000  .000000  .00000  525.00 1.0000 .000000 .000000  .00000  .00000 0   
  af 皖濉溪635 1   1  0 1.0000  .0000   .00000  .000000  .000000  .00000  525.00 1.0000 .000000 .000000  .00000  .00000 0   
  b0 皖濉溪625 1   1  0 1.0000  .0000   .00000  .000000  .000000  .00000  525.00 1.0000 .000000 .000000  .00000  .00000 0   
  b1 皖虎山Ⅰ 1   1  0 1.0000  .0000   .00000  .000000  .000000  .00000  230.00 1.0000 .000000 .000000  .00000  .00000 0   
  b2 皖虎山Ⅱ 1   1  0 1.0000  .0000   .00000  .000000  .000000  .00000  230.00 1.0000 .000000 .000000  .00000  .00000 0   
  b3 皖沱河B22 1   1  0 1.0000  .0000   .00000  .000000  .000000  .00000  230.00 1.0000 .000000 .000000  .00000  .00000 0   
  b4 皖沱河B12 1   1  0 1.0000  .0000   .00000  .000000  .000000  .00000  230.00 1.0000 .000000 .000000  .00000  .00000 0   
  b5 皖沱河Ⅱ 1   1  0 1.0000  .0000   .00000  .000000  .000000  .00000  230.00 1.0000 .000000 .000000  .00000  .00000 0   
  b6 皖沱河Ⅰ 1   1  0 1.0000  .0000   .00000  .000000  .000000  .00000  230.00 1.0000 .000000 .000000  .00000  .00000 0   
  b7 皖刘尧B22 1   1  0 1.0000  .0000   .00000  .000000  .000000  .00000  230.00 1.0000 .000000 .000000  .00000  .00000 0   
  b8 皖刘尧B12 1   1  0 1.0000  .0000   .00000  .000000  .000000  .00000  230.00 1.0000 .000000 .000000  .00000  .00000 0   
  b9 皖刘尧Ⅱ 1   1  0 1.0000  .0000   .00000  .000000  .000000  .00000  230.00 1.0000 .000000 .000000  .00000  .00000 0   
  ba 皖刘尧Ⅰ 1   1  0 1.0000  .0000   .00000  .000000  .000000  .00000  230.00 1.0000 .000000 .000000  .00000  .00000 0   
  bb 皖姬村B12 1   1  0 1.0000  .0000   .00000  .000000  .000000  .00000  230.00 1.0000 .000000 .000000  .00000  .00000 0   
  bc 皖姬村B22 1   1  0 1.0000  .0000   .00000  .000000  .000000  .00000  230.00 1.0000 .000000 .000000  .00000  .00000 0   
  bd 皖姬村Ⅰ 1   1  0 1.0000  .0000   .00000  .000000  .000000  .00000  230.00 1.0000 .000000 .000000  .00000  .00000 0   
  be 皖姬村Ⅱ 1   1  0 1.0000  .0000   .00000  .000000  .000000  .00000  230.00 1.0000 .000000 .000000  .00000  .00000 0   
  bf 皖陇海B12 1   1  0 1.0000  .0000   .00000  .000000  .000000  .00000  230.00 1.0000 .000000 .000000  .00000  .00000 0   
  c0 皖陇海B22 1   1  0 1.0000  .0000   .00000  .000000  .000000  .00000  230.00 1.0000 .000000 .000000  .00000  .00000 0   
  c1 皖陇海Ⅱ 1   1  0 1.0000  .0000   .00000  .000000  .000000  .00000  230.00 1.0000 .000000 .000000  .00000  .00000 0   
  c2 皖桃沟_22 1   1  0 1.0000  .0000   .00000  -20.000  .000000  .00000  230.00 1.0000 .000000 .000000  .00000  .00000 0   
  c3 皖虹乡B12 1   1  0 1.0000  .0000   .00000  .000000  .000000  .00000  230.00 1.0000 .000000 .000000  .00000  .00000 0   
  c4 皖虹乡Ⅱ 1   1  0 1.0000  .0000   .00000  .000000  .000000  .00000  230.00 1.0000 .000000 .000000  .00000  .00000 0   
  c5 皖甬桥2A2 1   1  0 1.0000  .0000   .00000  .000000  .000000  .00000  230.00 1.0000 .000000 .000000  .00000  .00000 0   
  c6 皖甬桥1A2 1   1  0 1.0000  .0000   .00000  .000000  .000000  .00000  230.00 1.0000 .000000 .000000  .00000  .00000 0   
  c7 皖甬桥2B2 1   1  0 1.0000  .0000   .00000  .000000  .000000  .00000  230.00 1.0000 .000000 .000000  .00000  .00000 0   
  c8 皖甬桥1B2 1   1  0 1.0000  .0000   .00000  .000000  .000000  .00000  230.00 1.0000 .000000 .000000  .00000  .00000 0   
  c9 皖双庆B12 1   1  0 1.0000  .0000   .00000  .000000  .000000  .00000  230.00 1.0000 .000000 .000000  .00000  .00000 0   
  ca 皖双庆Ⅱ 1   1  0 1.0000  .0000   .00000  .000000  .000000  .00000  230.00 1.0000 .000000 .000000  .00000  .00000 0   
  cb 皖双庆Ⅰ 1   1  0 1.0000  .0000   .00000  .000000  .000000  .00000  230.00 1.0000 .000000 .000000  .00000  .00000 0   
  cc 皖马井B22 1   1  0 1.0000  .0000   .00000  .000000  .000000  .00000  230.00 1.0000 .000000 .000000  .00000  .00000 0   
  cd 皖马井B12 1   1  0 1.0000  .0000   .00000  .000000  .000000  .00000  230.00 1.0000 .000000 .000000  .00000  .00000 0   
  ce 皖马井Ⅱ 1   1  0 1.0000  .0000   .00000  .000000  .000000  .00000  230.00 1.0000 .000000 .000000  .00000  .00000 0   
  cf 皖马井Ⅰ 1   1  0 1.0000  .0000   .00000  .000000  .000000  .00000  230.00 1.0000 .000000 .000000  .00000  .00000 0   
  d0 皖汇源Ⅰ 1   1  0 1.0000  .0000   .00000  .000000  .000000  .00000  230.00 1.0000 .000000 .000000  .00000  .00000 0   
  d1 皖汇源IN2 1   1  0 1.0000  .0000   .00000  .000000  .000000  .00000  230.00 1.0000 .000000 .000000  .00000  .00000 0   
  d2 皖汇源Ⅱ 1   1  0 1.0000  .0000   .00000  .000000  .000000  .00000  230.00 1.0000 .000000 .000000  .00000  .00000 0   
  d3 皖谷岭B12 1   1  0 1.0000  .0000   .00000  .000000  .000000  .00000  230.00 1.0000 .000000 .000000  .00000  .00000 0   
  d4 皖谷岭Ⅱ 1   1  0 1.0000  .0000   .00000  .000000  .000000  .00000  230.00 1.0000 .000000 .000000  .00000  .00000 0   
  d5 皖谷岭Ⅰ 1   1  0 1.0000  .0000   .00000  .000000  .000000  .00000  230.00 1.0000 .000000 .000000  .00000  .00000 0   
  d6 皖薛桥B12 1   1  0 1.0000  .0000   .00000  .000000  .000000  .00000  230.00 1.0000 .000000 .000000  .00000  .00000 0   
  d7 皖薛桥Ⅱ 1   1  0 1.0000  .0000   .00000  .000000  .000000  .00000  230.00 1.0000 .000000 .000000  .00000  .00000 0   
  d8 皖太和B12 1   1  0 1.0000  .0000   .00000  .000000  .000000  .00000  230.00 1.0000 .000000 .000000  .00000  .00000 0   
  d9 皖太和B22 1   1  0 1.0000  .0000   .00000  .000000  .000000  .00000  230.00 1.0000 .000000 .000000  .00000  .00000 0   
  da 皖太和PC2 1   1  0 1.0000  .0000   .00000  .000000  .000000  .00000  230.00 1.0000 .000000 .000000  .00000  .00000 0   
  db 皖太和Ⅰ 1   1  0 1.0000  .0000   .00000  .000000  .000000  .00000  230.00 1.0000 .000000 .000000  .00000  .00000 0   
  dc 皖太和Ⅱ 1   1  0 1.0000  .0000   .00000  .000000  .000000  .00000  230.00 1.0000 .000000 .000000  .00000  .00000 0   
  dd 皖阜阳B22 1   1  0 1.0000  .0000   .00000  .000000  .000000  .00000  230.00 1.0000 .000000 .000000  .00000  .00000 0   
  de 皖阜阳B12 1   1  0 1.0000  .0000   .00000  .000000  .000000  .00000  230.00 1.0000 .000000 .000000  .00000  .00000 0   
  df 皖阜阳Ⅰ 1   1  0 1.0000  .0000   .00000  .000000  .000000  .00000  230.00 1.0000 .000000 .000000  .00000  .00000 0   
  e0 皖阜阳Ⅱ 1   1  0 1.0000  .0000   .00000  .000000  .000000  .00000  230.00 1.0000 .000000 .000000  .00000  .00000 0   
  e1 皖阜润Ⅰ 1   1  0 1.0000  .0000   .00000  .000000  .000000  .00000  230.00 1.0000 .000000 .000000  .00000  .00000 0   
  e2 皖阜润Ⅱ 1   1  0 1.0000  .0000   .00000  .000000  .000000  .00000  230.00 1.0000 .000000 .000000  .00000  .00000 0   
  e3 皖阜润Ⅲ 1   1  0 1.0000  .0000   .00000  .000000  .000000  .00000  230.00 1.0000 .000000 .000000  .00000  .00000 0   
  e4 皖邢集B12 1   1  0 1.0000  .0000   .00000  .000000  .000000  .00000  230.00 1.0000 .000000 .000000  .00000  .00000 0   
  e5 皖邢集B22 1   1  0 1.0000  .0000   .00000  .000000  .000000  .00000  230.00 1.0000 .000000 .000000  .00000  .00000 0   
  e6 皖邢集Ⅱ 1   1  0 1.0000  .0000   .00000  .000000  .000000  .00000  230.00 1.0000 .000000 .000000  .00000  .00000 0   
  e7 皖邢集Ⅰ 1   1  0 1.0000  .0000   .00000  .000000  .000000  .00000  230.00 1.0000 .000000 .000000  .00000  .00000 0   
  e8 皖花园B12 1   1  0 1.0000  .0000   .00000  .000000  .000000  .00000  230.00 1.0000 .000000 .000000  .00000  .00000 0   
  e9 皖花园B22 1   1  0 1.0000  .0000   .00000  .000000  .000000  .00000  230.00 1.0000 .000000 .000000  .00000  .00000 0   
  ea 皖花园Ⅱ 1   1  0 1.0000  .0000   .00000  .000000  .000000  .00000  230.00 1.0000 .000000 .000000  .00000  .00000 0   
  eb 皖花园Ⅰ 1   1  0 1.0000  .0000   .00000  .000000  .000000  .00000  230.00 1.0000 .000000 .000000  .00000  .00000 0   
  ec 皖东庄B12 1   1  0 1.0000  .0000   .00000  .000000  .000000  .00000  230.00 1.0000 .000000 .000000  .00000  .00000 0   
  ed 皖东庄B22 1   1  0 1.0000  .0000   .00000  .000000  .000000  .00000  230.00 1.0000 .000000 .000000  .00000  .00000 0   
  ee 皖东庄Ⅱ 1   1  0 1.0000  .0000   .00000  .000000  .000000  .00000  230.00 1.0000 .000000 .000000  .00000  .00000 0   
  ef 皖东庄Ⅰ 1   1  0 1.0000  .0000   .00000  .000000  .000000  .00000  230.00 1.0000 .000000 .000000  .00000  .00000 0   
  f0 皖徐寨B22 1   1  0 1.0000  .0000   .00000  .000000  .000000  .00000  230.00 1.0000 .000000 .000000  .00000  .00000 0   
  f1 皖徐寨B12 1   1  0 1.0000  .0000   .00000  .000000  .000000  .00000  230.00 1.0000 .000000 .000000  .00000  .00000 0   
  f2 皖徐寨L23 1   1  0 1.0000  .0000   .00000  .000000  .000000  .00000  37.000 1.0000 .000000 .000000  .00000  .00000 0   
  f3 皖徐寨M21 1   1  0 1.0000  .0000   .00000  .000000  .000000  .00000  115.00 1.0000 .000000 .000000  .00000  .00000 0   
  f4 皖徐寨002 1   1  0 1.0000  .0000   .00000  .000000  .000000  .00000  230.00 1.0000 .000000 .000000  .00000  .00000 0   
  f5 皖程集B12 1   1  0 1.0000  .0000   .00000  .000000  .000000  .00000  230.00 1.0000 .000000 .000000  .00000  .00000 0   
  f6 皖程集Ⅰ 1   1  0 1.0000  .0000   .00000  .000000  .000000  .00000  230.00 1.0000 .000000 .000000  .00000  .00000 0   
  f7 皖程集Ⅱ 1   1  0 1.0000  .0000   .00000  .000000  .000000  .00000  230.00 1.0000 .000000 .000000  .00000  .00000 0   
  f8 皖牛庄B22 1   1  0 1.0000  .0000   .00000  .000000  .000000  .00000  230.00 1.0000 .000000 .000000  .00000  .00000 0   
  f9 皖牛庄B12 1   1  0 1.0000  .0000   .00000  .000000  .000000  .00000  230.00 1.0000 .000000 .000000  .00000  .00000 0   
  fa 皖牛庄Ⅱ 1   1  0 1.0000  .0000   .00000  .000000  .000000  .00000  230.00 1.0000 .000000 .000000  .00000  .00000 0   
  fb 皖牛庄Ⅰ 1   1  0 1.0000  .0000   .00000  .000000  .000000  .00000  230.00 1.0000 .000000 .000000  .00000  .00000 0   
  fc 皖颍州B12 1   1  0 1.0000  .0000   .00000  .000000  .000000  .00000  230.00 1.0000 .000000 .000000  .00000  .00000 0   
  fd 皖颍州B22 1   1  0 1.0000  .0000   .00000  .000000  .000000  .00000  230.00 1.0000 .000000 .000000  .00000  .00000 0   
  fe 皖颍州_13 1   1  0 1.0000  .0000   .00000  .000000  .000000  .00000  36.000 1.0000 .000000 .000000  .00000  -1.800 0   
  ff 皖颍州_23 1   1  0 1.0000  .0000   .00000  .000000  .000000  .00000  36.000 1.0000 .000000 .000000  .00000  -1.200 0   
 100 皖颍州1A2 1   1  0 1.0000  .0000   .00000  .000000  .000000  .00000  230.00 1.0000 .000000 .000000  .00000  .00000 0   
 101 皖颍州2B2 1   1  0 1.0000  .0000   .00000  .000000  .000000  .00000  230.00 1.0000 .000000 .000000  .00000  .00000 0   
 102 皖颍州1B2 1   1  0 1.0000  .0000   .00000  .000000  .000000  .00000  230.00 1.0000 .000000 .000000  .00000  .00000 0   
 103 皖颍州2A2 1   1  0 1.0000  .0000   .00000  .000000  .000000  .00000  230.00 1.0000 .000000 .000000  .00000  .00000 0   
 104 皖颍州Ⅰ 1   1  0 1.0000  .0000   .00000  .000000  .000000  .00000  525.00 1.0000 .000000 .000000  .00000  .00000 0   
 105 皖颍州Ⅱ 1   1  0 1.0000  .0000   .00000  .000000  .000000  .00000  525.00 1.0000 .000000 .000000  .00000  .00000 0   
 106 皖颍州235 1   1  0 1.0000  .0000   .00000  .000000  .000000  .00000  525.00 1.0000 .000000 .000000  .00000  .00000 0   
 107 皖颍州335 1   1  0 1.0000  .0000   .00000  .000000  .000000  .00000  525.00 1.0000 .000000 .000000  .00000  .00000 0   
 108 皖颍州135 1   1  0 1.0000  .0000   .00000  .000000  .000000  .00000  525.00 1.0000 .000000 .000000  .00000  .00000 0   
 109 皖颍州125 1   1  0 1.0000  .0000   .00000  .000000  .000000  .00000  525.00 1.0000 .000000 .000000  .00000  .00000 0   
 10a 皖正午B12 1   1  0 1.0000  .0000   .00000  .000000  .000000  .00000  230.00 1.0000 .000000 .000000  .00000  .00000 0   
 10b 皖正午B22 1   1  0 1.0000  .0000   .00000  .000000  .000000  .00000  230.00 1.0000 .000000 .000000  .00000  .00000 0   
 10c 皖正午Ⅱ 1   1  0 1.0000  .0000   .00000  .000000  .000000  .00000  230.00 1.0000 .000000 .000000  .00000  .00000 0   
 10d 皖正午Ⅰ 1   1  0 1.0000  .0000   .00000  .000000  .000000  .00000  230.00 1.0000 .000000 .000000  .00000  .00000 0   
 10e 皖白果B22 1   1  0 1.0000  .0000   .00000  .000000  .000000  .00000  230.00 1.0000 .000000 .000000  .00000  .00000 0   
 10f 皖白果B12 1   1  0 1.0000  .0000   .00000  .000000  .000000  .00000  230.00 1.0000 .000000 .000000  .00000  .00000 0   
 110 皖白果Ⅱ 1   1  0 1.0000  .0000   .00000  .000000  .000000  .00000  230.00 1.0000 .000000 .000000  .00000  .00000 0   
 111 皖谯城B12 1   1  0 1.0000  .0000   .00000  .000000  .000000  .00000  230.00 1.0000 .000000 .000000  .00000  .00000 0   
 112 皖谯城B22 1   1  0 1.0000  .0000   .00000  .000000  .000000  .00000  230.00 1.0000 .000000 .000000  .00000  .00000 0   
 113 皖谯城Ⅱ 1   1  0 1.0000  .0000   .00000  .000000  .000000  .00000  230.00 1.0000 .000000 .000000  .00000  .00000 0   
 114 皖谯城Ⅰ 1   1  0 1.0000  .0000   .00000  .000000  .000000  .00000  230.00 1.0000 .000000 .000000  .00000  .00000 0   
 115 皖魏武B12 1   1  0 1.0000  .0000   .00000  .000000  .000000  .00000  230.00 1.0000 .000000 .000000  .00000  .00000 0   
 116 皖魏武Ⅱ 1   1  0 1.0000  .0000   .00000  .000000  .000000  .00000  230.00 1.0000 .000000 .000000  .00000  .00000 0   
 117 皖赵桥B12 1   1  0 1.0000  .0000   .00000  .000000  .000000  .00000  230.00 1.0000 .000000 .000000  .00000  .00000 0   
 118 皖赵桥Ⅱ 1   1  0 1.0000  .0000   .00000  .000000  .000000  .00000  230.00 1.0000 .000000 .000000  .00000  .00000 0   
 119 皖焦楼B12 1   1  0 1.0000  .0000   .00000  .000000  .000000  .00000  230.00 1.0000 .000000 .000000  .00000  .00000 0   
 11a 皖焦楼B22 1   1  0 1.0000  .0000   .00000  .000000  .000000  .00000  230.00 1.0000 .000000 .000000  .00000  .00000 0   
 11b 皖焦楼Ⅱ 1   1  0 1.0000  .0000   .00000  .000000  .000000  .00000  230.00 1.0000 .000000 .000000  .00000  .00000 0   
 11c 皖焦楼Ⅰ 1   1  0 1.0000  .0000   .00000  .000000  .000000  .00000  230.00 1.0000 .000000 .000000  .00000  .00000 0   
 11d 皖伯阳2A2 1   1  0 1.0000  .0000   .00000  .000000  .000000  .00000  230.00 1.0000 .000000 .000000  .00000  .00000 0   
 11e 皖伯阳1B2 1   1  0 1.0000  .0000   .00000  .000000  .000000  .00000  230.00 1.0000 .000000 .000000  .00000  .00000 0   
 11f 皖伯阳2B2 1   1  0 1.0000  .0000   .00000  .000000  .000000  .00000  230.00 1.0000 .000000 .000000  .00000  .00000 0   
 120 皖伯阳1A2 1   1  0 1.0000  .0000   .00000  .000000  .000000  .00000  230.00 1.0000 .000000 .000000  .00000  .00000 0   
 121 皖涡阳B12 1   1  0 1.0000  .0000   .00000  .000000  .000000  .00000  230.00 1.0000 .000000 .000000  .00000  .00000 0   
 122 皖涡阳B22 1   1  0 1.0000  .0000   .00000  .000000  .000000  .00000  230.00 1.0000 .000000 .000000  .00000  .00000 0   
 123 皖涡阳Ⅰ 1   1  0 1.0000  .0000   .00000  .000000  .000000  .00000  230.00 1.0000 .000000 .000000  .00000  .00000 0   
 124 皖涡阳Ⅱ 1   1  0 1.0000  .0000   .00000  .000000  .000000  .00000  230.00 1.0000 .000000 .000000  .00000  .00000 0   
 125 皖蒙城B22 1   1  0 1.0000  .0000   .00000  .000000  .000000  .00000  230.00 1.0000 .000000 .000000  .00000  .00000 0   
 126 皖蒙城B12 1   1  0 1.0000  .0000   .00000  .000000  .000000  .00000  230.00 1.0000 .000000 .000000  .00000  .00000 0   
 127 皖蒙城PC2 1   1  0 1.0000  .0000   .00000  .000000  .000000  .00000  230.00 1.0000 .000000 .000000  .00000  .00000 0   
 128 皖蒙城Ⅱ 1   1  0 1.0000  .0000   .00000  .000000  .000000  .00000  230.00 1.0000 .000000 .000000  .00000  .00000 0   
 129 皖蒙城Ⅰ 1   1  0 1.0000  .0000   .00000  .000000  .000000  .00000  230.00 1.0000 .000000 .000000  .00000  .00000 0   
 12a 皖茨淮B12 1   1  0 1.0000  .0000   .00000  .000000  .000000  .00000  230.00 1.0000 .000000 .000000  .00000  .00000 0   
 12b 皖茨淮B22 1   1  0 1.0000  .0000   .00000  .000000  .000000  .00000  230.00 1.0000 .000000 .000000  .00000  .00000 0   
 12c 皖茨淮Ⅱ 1   1  0 1.0000  .0000   .00000  .000000  .000000  .00000  230.00 1.0000 .000000 .000000  .00000  .00000 0   
 12d 皖茨淮Ⅰ 1   1  0 1.0000  .0000   .00000  .000000  .000000  .00000  230.00 1.0000 .000000 .000000  .00000  .00000 0   
 12e 皖曹店003 1   1  0 1.0000  .0000   .00000  .000000  .000000  .00000  37.000 1.0000 .000000 .000000  .00000  .00000 0   
 12f 皖曹店002 1   1  0 1.0000  .0000   .00000  .000000  .000000  .00000  230.00 1.0000 .000000 .000000  .00000  .00000 0   
 130 皖秦集B12 1   1  0 1.0000  .0000   .00000  .000000  .000000  .00000  230.00 1.0000 .000000 .000000  .00000  .00000 0   
 131 皖秦集B22 1   1  0 1.0000  .0000   .00000  .000000  .000000  .00000  230.00 1.0000 .000000 .000000  .00000  .00000 0   
 132 皖秦集Ⅱ 1   1  0 1.0000  .0000   .00000  .000000  .000000  .00000  230.00 1.0000 .000000 .000000  .00000  .00000 0   
 133 皖秦集Ⅰ 1   1  0 1.0000  .0000   .00000  .000000  .000000  .00000  230.00 1.0000 .000000 .000000  .00000  .00000 0   
 134 皖禹会B12 1   1  0 1.0000  .0000   .00000  .000000  .000000  .00000  230.00 1.0000 .000000 .000000  .00000  .00000 0   
 135 皖禹会B22 1   1  0 1.0000  .0000   .00000  .000000  .000000  .00000  230.00 1.0000 .000000 .000000  .00000  .00000 0   
 136 皖禹会_13 1   1  0 1.0000  .0000   .00000  .000000  .000000  .00000  36.000 1.0000 .000000 .000000  .00000  -1.200 0   
 137 皖禹会_23 1   1  0 1.0000  .0000   .00000  .000000  .000000  .00000  36.000 1.0000 .000000 .000000  .00000  -1.200 0   
 138 皖禹会1A2 1   1  0 1.0000  .0000   .00000  .000000  .000000  .00000  230.00 1.0000 .000000 .000000  .00000  .00000 0   
 139 皖禹会2A2 1   1  0 1.0000  .0000   .00000  .000000  .000000  .00000  230.00 1.0000 .000000 .000000  .00000  .00000 0   
 13a 皖禹会2B2 1   1  0 1.0000  .0000   .00000  .000000  .000000  .00000  230.00 1.0000 .000000 .000000  .00000  .00000 0   
 13b 皖禹会1B2 1   1  0 1.0000  .0000   .00000  .000000  .000000  .00000  230.00 1.0000 .000000 .000000  .00000  .00000 0   
 13c 皖禹会Ⅰ 1   1  0 1.0000  .0000   .00000  .000000  .000000  .00000  525.00 1.0000 .000000 .000000  .00000  .00000 0   
 13d 皖禹会Ⅱ 1   1  0 1.0000  .0000   .00000  .000000  .000000  .00000  525.00 1.0000 .000000 .000000  .00000  .00000 0   
 13e 皖禹会135 1   1  0 1.0000  .0000   .00000  .000000  .000000  .00000  525.00 1.0000 .000000 .000000  .00000  .00000 0   
 13f 皖禹会535 1   1  0 1.0000  .0000   .00000  .000000  .000000  .00000  525.00 1.0000 .000000 .000000  .00000  .00000 0   
 140 皖禹会425 1   1  0 1.0000  .0000   .00000  .000000  .000000  .00000  525.00 1.0000 .000000 .000000  .00000  .00000 0   
 141 皖禹会335 1   1  0 1.0000  .0000   .00000  .000000  .000000  .00000  525.00 1.0000 .000000 .000000  .00000  .00000 0   
 142 皖禹会325 1   1  0 1.0000  .0000   .00000  .000000  .000000  .00000  525.00 1.0000 .000000 .000000  .00000  .00000 0   
 143 皖禹会235 1   1  0 1.0000  .0000   .00000  .000000  .000000  .00000  525.00 1.0000 .000000 .000000  .00000  .00000 0   
 144 皖禹会225 1   1  0 1.0000  .0000   .00000  .000000  .000000  .00000  525.00 1.0000 .000000 .000000  .00000  .00000 0   
 145 皖陈桥B12 1   1  0 1.0000  .0000   .00000  .000000  .000000  .00000  230.00 1.0000 .000000 .000000  .00000  .00000 0   
 146 皖陈桥Ⅰ 1   1  0 1.0000  .0000   .00000  .000000  .000000  .00000  230.00 1.0000 .000000 .000000  .00000  .00000 0   
 147 皖陈桥Ⅱ 1   1  0 1.0000  .0000   .00000  .000000  .000000  .00000  230.00 1.0000 .000000 .000000  .00000  .00000 0   
 148 皖官塘B12 1   1  0 1.0000  .0000   .00000  .000000  .000000  .00000  230.00 1.0000 .000000 .000000  .00000  .00000 0   
 149 皖官塘Ⅰ 1   1  0 1.0000  .0000   .00000  .000000  .000000  .00000  230.00 1.0000 .000000 .000000  .00000  .00000 0   
 14a 皖官塘Ⅱ 1   1  0 1.0000  .0000   .00000  .000000  .000000  .00000  230.00 1.0000 .000000 .000000  .00000  .00000 0   
 14b 皖固镇Ⅱ 1   1  0 1.0000  .0000   .00000  -8.2500  .000000  .00000  230.00 1.0000 .000000 .000000  .00000  .00000 0   
 14c 皖蒋南B12 1   1  0 1.0000  .0000   .00000  .000000  .000000  .00000  230.00 1.0000 .000000 .000000  .00000  .00000 0   
 14d 皖蒋南Ⅰ 1   1  0 1.0000  .0000   .00000  .000000  .000000  .00000  230.00 1.0000 .000000 .000000  .00000  .00000 0   
 14e 皖蒋南Ⅱ 1   1  0 1.0000  .0000   .00000  .000000  .000000  .00000  230.00 1.0000 .000000 .000000  .00000  .00000 0   
 14f 皖钟阳B12 1   1  0 1.0000  .0000   .00000  .000000  .000000  .00000  230.00 1.0000 .000000 .000000  .00000  .00000 0   
 150 皖钟阳Ⅱ 1   1  0 1.0000  .0000   .00000  .000000  .000000  .00000  230.00 1.0000 .000000 .000000  .00000  .00000 0   
 151 皖钟阳Ⅰ 1   1  0 1.0000  .0000   .00000  .000000  .000000  .00000  230.00 1.0000 .000000 .000000  .00000  .00000 0   
 152 皖涂山B12 1   1  0 1.0000  .0000   .00000  .000000  .000000  .00000  230.00 1.0000 .000000 .000000  .00000  .00000 0   
 153 皖涂山Ⅱ 1   1  0 1.0000  .0000   .00000  .000000  .000000  .00000  230.00 1.0000 .000000 .000000  .00000  .00000 0   
 154 皖燕山B12 1   1  0 1.0000  .0000   .00000  .000000  .000000  .00000  230.00 1.0000 .000000 .000000  .00000  .00000 0   
 155 皖燕山B22 1   1  0 1.0000  .0000   .00000  .000000  .000000  .00000  230.00 1.0000 .000000 .000000  .00000  .00000 0   
 156 皖燕山Ⅱ 1   1  0 1.0000  .0000   .00000  .000000  .000000  .00000  230.00 1.0000 .000000 .000000  .00000  .00000 0   
 157 皖燕山Ⅰ 1   1  0 1.0000  .0000   .00000  .000000  .000000  .00000  230.00 1.0000 .000000 .000000  .00000  .00000 0   
 158 皖凤阳B12 1   1  0 1.0000  .0000   .00000  .000000  .000000  .00000  230.00 1.0000 .000000 .000000  .00000  .00000 0   
 159 皖凤阳B22 1   1  0 1.0000  .0000   .00000  .000000  .000000  .00000  230.00 1.0000 .000000 .000000  .00000  .00000 0   
 15a 皖凤阳Ⅰ 1   1  0 1.0000  .0000   .00000  .000000  .000000  .00000  230.00 1.0000 .000000 .000000  .00000  .00000 0   
 15b 皖凤阳Ⅱ 1   1  0 1.0000  .0000   .00000  .000000  .000000  .00000  230.00 1.0000 .000000 .000000  .00000  .00000 0   
 15c 皖高湖B22 1   1  0 1.0000  .0000   .00000  .000000  .000000  .00000  230.00 1.0000 .000000 .000000  .00000  .00000 0   
 15d 皖高湖B12 1   1  0 1.0000  .0000   .00000  .000000  .000000  .00000  230.00 1.0000 .000000 .000000  .00000  .00000 0   
 15e 皖高湖Ⅰ 1   1  0 1.0000  .0000   .00000  .000000  .000000  .00000  230.00 1.0000 .000000 .000000  .00000  .00000 0   
 15f 皖高湖Ⅱ 1   1  0 1.0000  .0000   .00000  .000000  .000000  .00000  230.00 1.0000 .000000 .000000  .00000  .00000 0   
 160 皖蚌东B22 1   1  0 1.0000  .0000   .00000  .000000  .000000  .00000  230.00 1.0000 .000000 .000000  .00000  .00000 0   
 161 皖蚌东B32 1   1  0 1.0000  .0000   .00000  .000000  .000000  .00000  230.00 1.0000 .000000 .000000  .00000  .00000 0   
 162 皖蚌东Ⅱ 1   1  0 1.0000  .0000   .00000  .000000  .000000  .00000  230.00 1.0000 .000000 .000000  .00000  .00000 0   
 163 皖蚌东Ⅰ 1   1  0 1.0000  .0000   .00000  .000000  .000000  .00000  230.00 1.0000 .000000 .000000  .00000  .00000 0   
 164 皖蚌东PC2 1   1  0 1.0000  .0000   .00000  .000000  .000000  .00000  230.00 1.0000 .000000 .000000  .00000  .00000 0   
 165 皖万寿Ⅰ 1   1  0 1.0000  .0000   .00000  .000000  .000000  .00000  37.000 1.0000 .000000 .000000  .00000  .00000 0   
 166 皖万寿Ⅰ 1   1  0 1.0000  .0000   .00000  .000000  .000000  .00000  230.00 1.0000 .000000 .000000  .00000  .00000 0   
 167 皖清流B22 1   1  0 1.0000  .0000   .00000  .000000  .000000  .00000  230.00 1.0000 .000000 .000000  .00000  .00000 0   
 168 皖清流B12 1   1  0 1.0000  .0000   .00000  .000000  .000000  .00000  230.00 1.0000 .000000 .000000  .00000  .00000 0   
 169 皖清流_13 1   1  0 1.0000  .0000   .00000  .000000  .000000  .00000  36.000 1.0000 .000000 .000000  .00000  -1.200 0   
 16a 皖清流_23 1   1  0 1.0000  .0000   .00000  .000000  .000000  .00000  36.000 1.0000 .000000 .000000  .00000  -1.800 0   
 16b 皖清流1A2 1   1  0 1.0000  .0000   .00000  .000000  .000000  .00000  230.00 1.0000 .000000 .000000  .00000  .00000 0   
 16c 皖清流2A2 1   1  0 1.0000  .0000   .00000  .000000  .000000  .00000  230.00 1.0000 .000000 .000000  .00000  .00000 0   
 16d 皖清流1B2 1   1  0 1.0000  .0000   .00000  .000000  .000000  .00000  230.00 1.0000 .000000 .000000  .00000  .00000 0   
 16e 皖清流2B2 1   1  0 1.0000  .0000   .00000  .000000  .000000  .00000  230.00 1.0000 .000000 .000000  .00000  .00000 0   
 16f 皖清流Ⅰ 1   1  0 1.0000  .0000   .00000  .000000  .000000  .00000  525.00 1.0000 .000000 .000000  .00000  .00000 0   
 170 皖清流Ⅱ 1   1  0 1.0000  .0000   .00000  .000000  .000000  .00000  525.00 1.0000 .000000 .000000  .00000  .00000 0   
 171 皖清流425 1   1  0 1.0000  .0000   .00000  .000000  .000000  .00000  525.00 1.0000 .000000 .000000  .00000  .00000 0   
 172 皖清流235 1   1  0 1.0000  .0000   .00000  .000000  .000000  .00000  525.00 1.0000 .000000 .000000  .00000  .00000 0   
 173 皖清流225 1   1  0 1.0000  .0000   .00000  .000000  .000000  .00000  525.00 1.0000 .000000 .000000  .00000  .00000 0   
 174 皖清流135 1   1  0 1.0000  .0000   .00000  .000000  .000000  .00000  525.00 1.0000 .000000 .000000  .00000  .00000 0   
 175 皖清流125 1   1  0 1.0000  .0000   .00000  .000000  .000000  .00000  525.00 1.0000 .000000 .000000  .00000  .00000 0   
 176 皖清流335 1   1  0 1.0000  .0000   .00000  .000000  .000000  .00000  525.00 1.0000 .000000 .000000  .00000  .00000 0   
 177 皖清流325 1   1  0 1.0000  .0000   .00000  .000000  .000000  .00000  525.00 1.0000 .000000 .000000  .00000  .00000 0   
 178 皖天长B12 1   1  0 1.0000  .0000   .00000  .000000  .000000  .00000  230.00 1.0000 .000000 .000000  .00000  .00000 0   
 179 皖天长B22 1   1  0 1.0000  .0000   .00000  .000000  .000000  .00000  230.00 1.0000 .000000 .000000  .00000  .00000 0   
 17a 皖天长Ⅱ 1   1  0 1.0000  .0000   .00000  .000000  .000000  .00000  230.00 1.0000 .000000 .000000  .00000  .00000 0   
 17b 皖天长Ⅰ 1   1  0 1.0000  .0000   .00000  .000000  .000000  .00000  230.00 1.0000 .000000 .000000  .00000  .00000 0   
 17c 皖滁县B12 1   1  0 1.0000  .0000   .00000  .000000  .000000  .00000  230.00 1.0000 .000000 .000000  .00000  .00000 0   
 17d 皖滁县B22 1   1  0 1.0000  .0000   .00000  .000000  .000000  .00000  230.00 1.0000 .000000 .000000  .00000  .00000 0   
 17e 皖滁县Ⅱ 1   1  0 1.0000  .0000   .00000  .000000  .000000  .00000  230.00 1.0000 .000000 .000000  .00000  .00000 0   
 17f 皖滁县Ⅰ 1   1  0 1.0000  .0000   .00000  .000000  .000000  .00000  230.00 1.0000 .000000 .000000  .00000  .00000 0   
 180 皖定远B12 1   1  0 1.0000  .0000   .00000  .000000  .000000  .00000  230.00 1.0000 .000000 .000000  .00000  .00000 0   
 181 皖定远B22 1   1  0 1.0000  .0000   .00000  .000000  .000000  .00000  230.00 1.0000 .000000 .000000  .00000  .00000 0   
 182 皖定远Ⅱ 1   1  0 1.0000  .0000   .00000  .000000  .000000  .00000  230.00 1.0000 .000000 .000000  .00000  .00000 0   
 183 皖定远Ⅰ 1   1  0 1.0000  .0000   .00000  .000000  .000000  .00000  230.00 1.0000 .000000 .000000  .00000  .00000 0   
 184 皖建阳B22 1   1  0 1.0000  .0000   .00000  .000000  .000000  .00000  230.00 1.0000 .000000 .000000  .00000  .00000 0   
 185 皖建阳B12 1   1  0 1.0000  .0000   .00000  .000000  .000000  .00000  230.00 1.0000 .000000 .000000  .00000  .00000 0   
 186 皖建阳Ⅰ 1   1  0 1.0000  .0000   .00000  .000000  .000000  .00000  230.00 1.0000 .000000 .000000  .00000  .00000 0   
 187 皖建阳Ⅱ 1   1  0 1.0000  .0000   .00000  .000000  .000000  .00000  230.00 1.0000 .000000 .000000  .00000  .00000 0   
 188 皖黄栗B12 1   1  0 1.0000  .0000   .00000  .000000  .000000  .00000  230.00 1.0000 .000000 .000000  .00000  .00000 0   
 189 皖黄栗Ⅱ 1   1  0 1.0000  .0000   .00000  .000000  .000000  .00000  230.00 1.0000 .000000 .000000  .00000  .00000 0   
 18a 皖黄栗Ⅰ 1   1  0 1.0000  .0000   .00000  .000000  .000000  .00000  230.00 1.0000 .000000 .000000  .00000  .00000 0   
 18b 皖宝桥B12 1   1  0 1.0000  .0000   .00000  .000000  .000000  .00000  230.00 1.0000 .000000 .000000  .00000  .00000 0   
 18c 皖宝桥B22 1   1  0 1.0000  .0000   .00000  .000000  .000000  .00000  230.00 1.0000 .000000 .000000  .00000  .00000 0   
 18d 皖宝桥Ⅰ 1   1  0 1.0000  .0000   .00000  .000000  .000000  .00000  230.00 1.0000 .000000 .000000  .00000  .00000 0   
 18e 皖宝桥Ⅱ 1   1  0 1.0000  .0000   .00000  .000000  .000000  .00000  230.00 1.0000 .000000 .000000  .00000  .00000 0   
 18f 皖千秋B22 1   1  0 1.0000  .0000   .00000  .000000  .000000  .00000  230.00 1.0000 .000000 .000000  .00000  .00000 0   
 190 皖千秋B12 1   1  0 1.0000  .0000   .00000  .000000  .000000  .00000  230.00 1.0000 .000000 .000000  .00000  .00000 0   
 191 皖千秋Ⅱ 1   1  0 1.0000  .0000   .00000  .000000  .000000  .00000  230.00 1.0000 .000000 .000000  .00000  .00000 0   
 192 皖千秋Ⅰ 1   1  0 1.0000  .0000   .00000  .000000  .000000  .00000  230.00 1.0000 .000000 .000000  .00000  .00000 0   
 193 皖来安Ⅰ 1   1  0 1.0000  .0000   .00000  .000000  .000000  .00000  37.000 1.0000 .000000 .000000  .00000  .00000 0   
 194 皖来安Ⅱ 1   1  0 1.0000  .0000   .00000  .000000  .000000  .00000  37.000 1.0000 .000000 .000000  .00000  .00000 0   
 195 皖来安Ⅰ 1   1  0 1.0000  .0000   .00000  .000000  .000000  .00000  230.00 1.0000 .000000 .000000  .00000  .00000 0   
 196 皖桑涧012 1   1  0 1.0000  .0000   -.0080  .000000  .000000  .00000  230.00 1.0000 .000000 .000000  .00000  .00000 0   
 197 皖深秀B12 1   1  0 1.0000  .0000   .00000  .000000  .000000  .00000  230.00 1.0000 .000000 .000000  .00000  .00000 0   
 198 皖深秀Ⅱ 1   1  0 1.0000  .0000   .00000  .000000  .000000  .00000  230.00 1.0000 .000000 .000000  .00000  .00000 0   
 199 皖深秀Ⅰ 1   1  0 1.0000  .0000   .00000  .000000  .000000  .00000  230.00 1.0000 .000000 .000000  .00000  .00000 0   
 19a 皖腰铺Ⅱ 1   1  0 1.0000  .0000   -.2010  -1.4700  .000000  .00000  230.00 1.0000 .000000 .000000  .00000  .00000 0   
 19b 皖嘉山B22 1   1  0 1.0000  .0000   .00000  .000000  .000000  .00000  230.00 1.0000 .000000 .000000  .00000  .00000 0   
 19c 皖嘉山B12 1   1  0 1.0000  .0000   .00000  .000000  .000000  .00000  230.00 1.0000 .000000 .000000  .00000  .00000 0   
 19d 皖嘉山Ⅱ 1   1  0 1.0000  .0000   .00000  .000000  .000000  .00000  230.00 1.0000 .000000 .000000  .00000  .00000 0   
 19e 皖嘉山Ⅰ 1   1  0 1.0000  .0000   .00000  .000000  .000000  .00000  230.00 1.0000 .000000 .000000  .00000  .00000 0   
 19f 皖西山B12 1   1  0 1.0000  .0000   .00000  .000000  .000000  .00000  230.00 1.0000 .000000 .000000  .00000  .00000 0   
 1a0 皖西山B22 1   1  0 1.0000  .0000   .00000  .000000  .000000  .00000  230.00 1.0000 .000000 .000000  .00000  .00000 0   
 1a1 皖西山Ⅰ 1   1  0 1.0000  .0000   .00000  .000000  .000000  .00000  230.00 1.0000 .000000 .000000  .00000  .00000 0   
 1a2 皖西山Ⅱ 1   1  0 1.0000  .0000   .00000  .000000  .000000  .00000  230.00 1.0000 .000000 .000000  .00000  .00000 0   
 1a3 皖金家B12 1   1  0 1.0000  .0000   .00000  .000000  .000000  .00000  230.00 1.0000 .000000 .000000  .00000  .00000 0   
 1a4 皖金家B22 1   1  0 1.0000  .0000   .00000  .000000  .000000  .00000  230.00 1.0000 .000000 .000000  .00000  .00000 0   
 1a5 皖金家Ⅱ 1   1  0 1.0000  .0000   .00000  .000000  .000000  .00000  230.00 1.0000 .000000 .000000  .00000  .00000 0   
 1a6 皖金家Ⅰ 1   1  0 1.0000  .0000   .00000  .000000  .000000  .00000  230.00 1.0000 .000000 .000000  .00000  .00000 0   
 1a7 皖芦集B22 1   1  0 1.0000  .0000   .00000  .000000  .000000  .00000  230.00 1.0000 .000000 .000000  .00000  .00000 0   
 1a8 皖芦集B12 1   1  0 1.0000  .0000   .00000  .000000  .000000  .00000  230.00 1.0000 .000000 .000000  .00000  .00000 0   
 1a9 皖芦集Ⅱ 1   1  0 1.0000  .0000   .00000  .000000  .000000  .00000  230.00 1.0000 .000000 .000000  .00000  .00000 0   
 1aa 皖芦集Ⅰ 1   1  0 1.0000  .0000   .00000  .000000  .000000  .00000  230.00 1.0000 .000000 .000000  .00000  .00000 0   
 1ab 皖洛变B12 1   1  0 1.0000  .0000   .00000  .000000  .000000  .00000  230.00 1.0000 .000000 .000000  .00000  .00000 0   
 1ac 皖洛变B22 1   1  0 1.0000  .0000   .00000  .000000  .000000  .00000  230.00 1.0000 .000000 .000000  .00000  .00000 0   
 1ad 皖洛变Ⅰ 1   1  0 1.0000  .0000   .00000  .000000  .000000  .00000  230.00 1.0000 .000000 .000000  .00000  .00000 0   
 1ae 皖洛变Ⅱ 1   1  0 1.0000  .0000   .00000  .000000  .000000  .00000  230.00 1.0000 .000000 .000000  .00000  .00000 0   
 1af 皖平变__2 1   1  0 1.0000  .0000   .00000  .000000  .000000  .00000  230.00 1.0000 .000000 .000000  .00000  .00000 0   
 1b0 皖张集B22 1   1  0 1.0000  .0000   .00000  .000000  .000000  .00000  230.00 1.0000 .000000 .000000  .00000  .00000 0   
 1b1 皖张集B12 1   1  0 1.0000  .0000   .00000  .000000  .000000  .00000  230.00 1.0000 .000000 .000000  .00000  .00000 0   
 1b2 皖张集Ⅱ 1   1  0 1.0000  .0000   .00000  .000000  .000000  .00000  230.00 1.0000 .000000 .000000  .00000  .00000 0   
 1b3 皖张集Ⅰ 1   1  0 1.0000  .0000   .00000  .000000  .000000  .00000  230.00 1.0000 .000000 .000000  .00000  .00000 0   
 1b4 皖丁集B12 1   1  0 1.0000  .0000   .00000  .000000  .000000  .00000  230.00 1.0000 .000000 .000000  .00000  .00000 0   
 1b5 皖丁集B22 1   1  0 1.0000  .0000   .00000  .000000  .000000  .00000  230.00 1.0000 .000000 .000000  .00000  .00000 0   
 1b6 皖丁集Ⅰ 1   1  0 1.0000  .0000   .00000  .000000  .000000  .00000  230.00 1.0000 .000000 .000000  .00000  .00000 0   
 1b7 皖丁集Ⅱ 1   1  0 1.0000  .0000   .00000  .000000  .000000  .00000  230.00 1.0000 .000000 .000000  .00000  .00000 0   
 1b8 皖钱甸Ⅰ 1   1  0 1.0000  .0000   .00000  .000000  .000000  .00000  230.00 1.0000 .000000 .000000  .00000  .00000 0   
 1b9 皖古沟B12 1   1  0 1.0000  .0000   .00000  .000000  .000000  .00000  230.00 1.0000 .000000 .000000  .00000  .00000 0   
 1ba 皖古沟B22 1   1  0 1.0000  .0000   .00000  .000000  .000000  .00000  230.00 1.0000 .000000 .000000  .00000  .00000 0   
 1bb 皖古沟Ⅱ 1   1  0 1.0000  .0000   .00000  .000000  .000000  .00000  230.00 1.0000 .000000 .000000  .00000  .00000 0   
 1bc 皖古沟Ⅰ 1   1  0 1.0000  .0000   .00000  .000000  .000000  .00000  230.00 1.0000 .000000 .000000  .00000  .00000 0   
 1bd 皖辛东B12 1   1  0 1.0000  .0000   .00000  .000000  .000000  .00000  230.00 1.0000 .000000 .000000  .00000  .00000 0   
 1be 皖辛东B22 1   1  0 1.0000  .0000   .00000  .000000  .000000  .00000  230.00 1.0000 .000000 .000000  .00000  .00000 0   
 1bf 皖辛东Ⅱ 1   1  0 1.0000  .0000   .00000  .000000  .000000  .00000  230.00 1.0000 .000000 .000000  .00000  .00000 0   
 1c0 皖辛东Ⅰ 1   1  0 1.0000  .0000   .00000  .000000  .000000  .00000  230.00 1.0000 .000000 .000000  .00000  .00000 0   
 1c1 皖滨淮Ⅱ 1   1  0 1.0000  .0000   .00000  .000000  .000000  .00000  230.00 1.0000 .000000 .000000  .00000  .00000 0   
 1c2 皖滨淮Ⅰ 1   1  0 1.0000  .0000   .00000  .000000  .000000  .00000  230.00 1.0000 .000000 .000000  .00000  .00000 0   
 1c3 皖洛河T52 1   1  0 1.0000  .0000   .00000  .000000  .000000  .00000  230.00 1.0000 .000000 .000000  .00000  .00000 0   
 1c4 皖洛河Ⅱ 1   1  0 1.0000  .0000   .00000  .000000  .000000  .00000  230.00 1.0000 .000000 .000000  .00000  .00000 0   
 1c5 皖洛河Ⅰ 1   1  0 1.0000  .0000   .00000  .000000  .000000  .00000  230.00 1.0000 .000000 .000000  .00000  .00000 0   
 1c6 皖洛河Ⅲ 1   1  0 1.0000  .0000   .00000  .000000  .000000  .00000  525.00 1.0000 .000000 .000000  .00000  .00000 0   
 1c7 皖洛河Ⅱ 1   1  0 1.0000  .0000   .00000  .000000  .000000  .00000  525.00 1.0000 .000000 .000000  .00000  .00000 0   
...
 a00 皖通江Ⅰ 1   1  0 1.0000  .0000   8.3200  .354900  .000000  .00000  37.000 1.0000 .000000 .000000  .00000  .00000 0   
 a01 皖通江Ⅱ 1   1  0 1.0000  .0000   .00000  .000000  .000000  .00000  115.00 1.0000 .000000 .000000  .00000  .00000 0   
 a02 皖通江Ⅰ 1   1  0 1.0000  .0000   18.060  5.13700  .000000  .00000  115.00 1.0000 .000000 .000000  .00000  .00000 0   
 a03 皖三安Ⅱ 1   1  0 1.0000  .0000   23.430  9.18700  .000000  .00000  115.00 1.0000 .000000 .000000  .00000  .00000 0   
 a04 皖三安Ⅰ 1   1  0 1.0000  .0000   .00000  .000000  .000000  .00000  115.00 1.0000 .000000 .000000  .00000  .00000 0   
 a05 皖铸缎Ⅰ 1   1  0 1.0000  .0000   17.500  3.03700  .000000  .00000  115.00 1.0000 .000000 .000000  .00000  .00000 0   
 a06 皖奇瑞Ⅰ 1   1  0 1.0000  .0000   22.230  2.54500  .000000  .00000  115.00 1.0000 .000000 .000000  .00000  .00000 0   
 a07 皖赵桥Ⅰ 1   1  0 1.0000  .0000   .00000  .000000  .000000  .00000  37.000 1.0000 .000000 .000000  .00000  .00000 0   
 a08 皖赵桥Ⅱ 1   1  0 1.0000  .0000   .00000  .000000  .000000  .00000  115.00 1.0000 .000000 .000000  .00000  .00000 0   
 a09 皖乐行Ⅱ 1   1  0 1.0000  .0000   7.4970  1.83500  .000000  .00000  37.000 1.0000 .000000 .000000  .00000  .00000 0   
 a0a 皖乐行Ⅰ 1   1  0 1.0000  .0000   .00000  .000000  .000000  .00000  37.000 1.0000 .000000 .000000  .00000  .00000 0   
 a0b 皖乐行Ⅰ 1   1  0 1.0000  .0000   .00000  .000000  .000000  .00000  115.00 1.0000 .000000 .000000  .00000  .00000 0   
 a0c 皖乐行Ⅱ 1   1  0 1.0000  .0000   .00000  .000000  .000000  .00000  115.00 1.0000 .000000 .000000  .00000  .00000 0   
 a0d 皖乐行B11 1   1  0 1.0000  .0000   .00000  .000000  .000000  .00000  115.00 1.0000 .000000 .000000  .00000  .00000 0   
 a0e 皖乐行Ⅰ 1   1  0 1.0000  .0000   2.5990  .746400  .000000  .00000  10.500 1.0000 .000000 .000000  .00000  .00000 0   
 a0f 皖乐行Ⅱ 1   1  0 1.0000  .0000   2.7940  .621600  .000000  .00000  10.500 1.0000 .000000 .000000  .00000  .00000 0   
 a10 皖乐行Ⅲ 1   1  0 1.0000  .0000   .00000  .000000  .000000  .00000  10.500 1.0000 .000000 .000000  .00000  .00000 0   
 a11 皖乐行B21 1   1  0 1.0000  .0000   .00000  .000000  .000000  .00000  115.00 1.0000 .000000 .000000  .00000  .00000 0   
 a12 皖汤陵PC3 1   1  0 1.0000  .0000   .00000  .000000  .000000  .00000  37.000 1.0000 .000000 .000000  .00000  .00000 0   
 a13 皖汤陵Ⅰ 1   1  0 1.0000  .0000   5.0900  1.20600  .000000  .00000  10.500 1.0000 .000000 .000000  .00000  .00000 0   
 a14 皖汤陵Ⅰ 1   1  0 1.0000  .0000   .99370  -.43700  .000000  .00000  37.000 1.0000 .000000 .000000  .00000  .00000 0   
 a15 皖汤陵Ⅱ 1   1  0 1.0000  .0000   .00000  .000000  .000000  .00000  37.000 1.0000 .000000 .000000  .00000  .00000 0   
 a16 皖汤陵Ⅱ 1   1  0 1.0000  .0000   .00000  .000000  .000000  .00000  115.00 1.0000 .000000 .000000  .00000  .00000 0   
 a17 皖汤陵Ⅰ 1   1  0 1.0000  .0000   .00000  .000000  .000000  .00000  115.00 1.0000 .000000 .000000  .00000  .00000 0   
 a18 皖汤陵B11 1   1  0 1.0000  .0000   .00000  .000000  .000000  .00000  115.00 1.0000 .000000 .000000  .00000  .00000 0   
 a19 皖汤陵Ⅱ 1   1  0 1.0000  .0000   11.200  4.02100  .000000  .00000  10.500 1.0000 .000000 .000000  .00000  .00000 0   
 a1a 皖汤陵B21 1   1  0 1.0000  .0000   .00000  .000000  .000000  .00000  115.00 1.0000 .000000 .000000  .00000  .00000 0   
 a1b 皖涡矿Ⅰ 1   1  0 1.0000  .0000   4.8650  .149200  .000000  .00000  37.000 1.0000 .000000 .000000  .00000  .00000 0   
 a1c 皖三星Ⅰ 1   1  0 1.0000  .0000   44.620  9.81500  .000000  .00000  115.00 1.0000 .000000 .000000  .00000  .00000 0   
 a1d 皖亳热Ⅱ 1   1  0 1.0000  .0000   1.9360  .000000  .000000  .00000  37.000 1.0000 .000000 .000000  .00000  .00000 0   
 a1e 皖茨淮Ⅰ 1   1  0 1.0000  .0000   .00000  .000000  .000000  .00000  115.00 1.0000 .000000 .000000  .00000  .00000 0   
 a1f 皖茨淮Ⅱ 1   1  0 1.0000  .0000   3.9950  1.78400  .000000  .00000  37.000 1.0000 .000000 .000000  .00000  .00000 0   
 a20 皖茨淮Ⅰ 1   1  0 1.0000  .0000   .00000  -.14200  .000000  .00000  37.000 1.0000 .000000 .000000  .00000  .00000 0   
 a21 皖茨淮Ⅱ 1   1  0 1.0000  .0000   .00000  .000000  .000000  .00000  115.00 1.0000 .000000 .000000  .00000  .00000 0   
 a22 皖亳州001 1   1  0 1.0000  .0000   .00000  .000000  .000000  .00000  115.00 1.0000 .000000 .000000  .00000  .00000 0   
 a23 皖亳州Ⅱ 1   1  0 1.0000  .0000   1.7980  .551800  .000000  .00000  37.000 1.0000 .000000 .000000  .00000  .00000 0   
 a24 皖亳州Ⅰ 1   1  0 1.0000  .0000   .00000  .000000  .000000  .00000  37.000 1.0000 .000000 .000000  .00000  .00000 0   
 a25 皖亳州Ⅱ 1   1  0 1.0000  .0000   20.370  -3.5200  .000000  .00000  10.500 1.0000 .000000 .000000  .00000  .00000 0   
 a26 皖亳州B11 1   1  0 1.0000  .0000   .00000  .000000  .000000  .00000  115.00 1.0000 .000000 .000000  .00000  .00000 0   
...